networks/opendss/CKT_750_14906.dss
! OpenDSS script generated from multiconductor network
Clear

New Circuit.mc_network basekv=16.0 pu=1.000000 angle=0.00 frequency=60.0 phases=3 Mvasc3=255987 Mvasc1=85329.1
~ bus1=-8888882190548.1.2.3

! Line codes
New LineCode.1/0_ACSR_3PH_16KV_3 nphases=3 units=km Rmatrix=[ 0.051351 | 0 0.051351 | 0 0 0.051351 ] Xmatrix=[ 0.040885 | 0 0.040885 | 0 0 0.040885 ] Cmatrix=[ 0 | 0 0 | 0 0 0 ]
New LineCode.4/0_CLP_3PH_16KV_3 nphases=3 units=km Rmatrix=[ 1e-05 | 0 1e-05 | 0 0 1e-05 ] Xmatrix=[ 1e-05 | 0 1e-05 | 0 0 1e-05 ] Cmatrix=[ 0 | 0 0 | 0 0 0 ]
New LineCode.4/0_CLP_2PH_16KV_2 nphases=2 units=km Rmatrix=[ 1e-05 | 0 1e-05 ] Xmatrix=[ 1e-05 | 0 1e-05 ] Cmatrix=[ 0 | 0 0 ]
New LineCode.3/0_ACSR_3PH_16KV_3 nphases=3 units=km Rmatrix=[ 1e-05 | 0 1e-05 | 0 0 1e-05 ] Xmatrix=[ 1e-05 | 0 1e-05 | 0 0 1e-05 ] Cmatrix=[ 0 | 0 0 | 0 0 0 ]
New LineCode.2_CLP_2PH_16KV_2 nphases=2 units=km Rmatrix=[ 0.292818 | 0 0.292818 ] Xmatrix=[ 0.06172 | 0 0.06172 ] Cmatrix=[ 0 | 0 0 ]
New LineCode.1/0_CLP_3PH_16KV_3 nphases=3 units=km Rmatrix=[ 0.021206 | 0 0.021206 | 0 0 0.021206 ] Xmatrix=[ 0.006481 | 0 0.006481 | 0 0 0.006481 ] Cmatrix=[ 0 | 0 0 | 0 0 0 ]
New LineCode.1/0_CLP_2PH_16KV_2 nphases=2 units=km Rmatrix=[ 0.064318 | 0 0.064318 ] Xmatrix=[ 0.019658 | 0 0.019658 ] Cmatrix=[ 0 | 0 0 ]
New LineCode.1/0_JCN_3PH_16KV_3 nphases=3 units=km Rmatrix=[ 0.039256 | 0 0.039256 | 0 0 0.039256 ] Xmatrix=[ 0.011998 | 0 0.011998 | 0 0 0.011998 ] Cmatrix=[ 0 | 0 0 | 0 0 0 ]
New LineCode.1000_JCN_3PH_16KV_3 nphases=3 units=km Rmatrix=[ 0.012016 | 0 0.012016 | 0 0 0.012016 ] Xmatrix=[ 0.018189 | 0 0.018189 | 0 0 0.018189 ] Cmatrix=[ 0 | 0 0 | 0 0 0 ]
New LineCode.350_JCN_3PH_16KV_3 nphases=3 units=km Rmatrix=[ 0.008783 | 0 0.008783 | 0 0 0.008783 ] Xmatrix=[ 0.006673 | 0 0.006673 | 0 0 0.006673 ] Cmatrix=[ 0 | 0 0 | 0 0 0 ]
New LineCode.336_ACSR_3PH_16KV_3 nphases=3 units=km Rmatrix=[ 0.008886 | 0 0.008886 | 0 0 0.008886 ] Xmatrix=[ 0.0199 | 0 0.0199 | 0 0 0.0199 ] Cmatrix=[ 0 | 0 0 | 0 0 0 ]
New LineCode.1/0_ACSR_2PH_16KV_2 nphases=2 units=km Rmatrix=[ 0.048748 | 0 0.048748 ] Xmatrix=[ 0.038813 | 0 0.038813 ] Cmatrix=[ 0 | 0 0 ]
New LineCode.2_JCN_3PH_16KV_3 nphases=3 units=km Rmatrix=[ 0.022931 | 0 0.022931 | 0 0 0.022931 ] Xmatrix=[ 0.004834 | 0 0.004834 | 0 0 0.004834 ] Cmatrix=[ 0 | 0 0 | 0 0 0 ]
New LineCode.1/0_JCN_2PH_16KV_2 nphases=2 units=km Rmatrix=[ 0.016551 | 0 0.016551 ] Xmatrix=[ 0.005059 | 0 0.005059 ] Cmatrix=[ 0 | 0 0 ]
New LineCode.350_CLP_3PH_16KV_3 nphases=3 units=km Rmatrix=[ 0.015436 | 0 0.015436 | 0 0 0.015436 ] Xmatrix=[ 0.011728 | 0 0.011728 | 0 0 0.011728 ] Cmatrix=[ 0 | 0 0 | 0 0 0 ]
New LineCode.2_CLP_3PH_16KV_3 nphases=3 units=km Rmatrix=[ 0.02947 | 0 0.02947 | 0 0 0.02947 ] Xmatrix=[ 0.006212 | 0 0.006212 | 0 0 0.006212 ] Cmatrix=[ 0 | 0 0 | 0 0 0 ]
New LineCode.1/0_CIC_3PH_16KV_3 nphases=3 units=km Rmatrix=[ 0.042008 | 0 0.042008 | 0 0 0.042008 ] Xmatrix=[ 0.01284 | 0 0.01284 | 0 0 0.01284 ] Cmatrix=[ 0 | 0 0 | 0 0 0 ]
New LineCode.1/0_AL_3PH_16KV_3 nphases=3 units=km Rmatrix=[ 0.165281 | 0 0.165281 | 0 0 0.165281 ] Xmatrix=[ 0.050518 | 0 0.050518 | 0 0 0.050518 ] Cmatrix=[ 0 | 0 0 | 0 0 0 ]
New LineCode.500_PILC_3PH_16KV_3 nphases=3 units=km Rmatrix=[ 0.010036 | 0 0.010036 | 0 0 0.010036 ] Xmatrix=[ 0.011353 | 0 0.011353 | 0 0 0.011353 ] Cmatrix=[ 0 | 0 0 | 0 0 0 ]
New LineCode.750_CLP_3PH_16KV_3 nphases=3 units=km Rmatrix=[ 0.003349 | 0 0.003349 | 0 0 0.003349 ] Xmatrix=[ 0.004113 | 0 0.004113 | 0 0 0.004113 ] Cmatrix=[ 0 | 0 0 | 0 0 0 ]
New LineCode.4_ACSR_3PH_16KV_3 nphases=3 units=km Rmatrix=[ 0.112198 | 0 0.112198 | 0 0 0.112198 ] Xmatrix=[ 0.04117 | 0 0.04117 | 0 0 0.04117 ] Cmatrix=[ 0 | 0 0 | 0 0 0 ]
New LineCode.1/0_AL_2PH_16KV_2 nphases=2 units=km Rmatrix=[ 0.075595 | 0 0.075595 ] Xmatrix=[ 0.023105 | 0 0.023105 ] Cmatrix=[ 0 | 0 0 ]
New LineCode.1/0_CU_3PH_16KV_3 nphases=3 units=km Rmatrix=[ 0.015854 | 0 0.015854 | 0 0 0.015854 ] Xmatrix=[ 0.019745 | 0 0.019745 | 0 0 0.019745 ] Cmatrix=[ 0 | 0 0 | 0 0 0 ]
New LineCode.4/0_ACSR_3PH_16KV_3 nphases=3 units=km Rmatrix=[ 0.001165 | 0 0.001165 | 0 0 0.001165 ] Xmatrix=[ 0.001646 | 0 0.001646 | 0 0 0.001646 ] Cmatrix=[ 0 | 0 0 | 0 0 0 ]
New LineCode.2/0_ACSR_3PH_16KV_3 nphases=3 units=km Rmatrix=[ 0.033316 | 0 0.033316 | 0 0 0.033316 ] Xmatrix=[ 0.032255 | 0 0.032255 | 0 0 0.032255 ] Cmatrix=[ 0 | 0 0 | 0 0 0 ]
New LineCode.1/0_ACSR_3PH_16KV_2 nphases=2 units=km Rmatrix=[ 0.051351 | 0 0.051351 ] Xmatrix=[ 0.040885 | 0 0.040885 ] Cmatrix=[ 0 | 0 0 ]
New LineCode.6_CU_3PH_16KV_3 nphases=3 units=km Rmatrix=[ 0.111478 | 0 0.111478 | 0 0 0.111478 ] Xmatrix=[ 0.039514 | 0 0.039514 | 0 0 0.039514 ] Cmatrix=[ 0 | 0 0 | 0 0 0 ]
New LineCode.336_ACSR_2PH_16KV_2 nphases=2 units=km Rmatrix=[ 0.006645 | 0 0.006645 ] Xmatrix=[ 0.01488 | 0 0.01488 ] Cmatrix=[ 0 | 0 0 ]
New LineCode.2_ACSR_3PH_16KV_3 nphases=3 units=km Rmatrix=[ 0.017698 | 0 0.017698 | 0 0 0.017698 ] Xmatrix=[ 0.009514 | 0 0.009514 | 0 0 0.009514 ] Cmatrix=[ 0 | 0 0 | 0 0 0 ]
New LineCode.6_CU_2PH_6_CU_N_16KV_3_N nphases=3 units=km Rmatrix=[ 0.01269 | 0 0.01269 | 0 0 0.01269 ] Xmatrix=[ 0.004098 | 0 0.004098 | 0 0 0.004098 ] Cmatrix=[ 0 | 0 0 | 0 0 0 ]
New LineCode.4_ACSR_3PH_4_ACSR_N_16KV_4 nphases=4 units=km Rmatrix=[ 0.004147 | 0 0.004147 | 0 0 0.004147 | 0 0 0 0.004147 ] Xmatrix=[ 0.001395 | 0 0.001395 | 0 0 0.001395 | 0 0 0 0.001395 ] Cmatrix=[ 0 | 0 0 | 0 0 0 | 0 0 0 0 ]
New LineCode.6_CU_2PH_16KV_2 nphases=2 units=km Rmatrix=[ 0.04723 | 0 0.04723 ] Xmatrix=[ 0.016741 | 0 0.016741 ] Cmatrix=[ 0 | 0 0 ]

! Lines
New Line.1423319E$4027104E phases=3 Bus1=38345810.1.2.3 Bus2=38348614.1.2.3 LineCode=1/0_ACSR_3PH_16KV_3 Length=0.089375 units=km
New Line.4352137E$BS0858-T phases=3 Bus1=32524726.1.2.3 Bus2=32495673.1.2.3 LineCode=4/0_CLP_3PH_16KV_3 Length=0.050226 units=km
New Line.BS0858-R$243213816 phases=2 Bus1=32495665.1.3 Bus2=243213818.1.3 LineCode=4/0_CLP_2PH_16KV_2 Length=0.042743 units=km
New Line.BS0858-L$ND243213959 phases=2 Bus1=32495682.2.3 Bus2=243213959.2.3 LineCode=4/0_CLP_2PH_16KV_2 Length=0.033882 units=km
New Line.ND243213959$243213909 phases=2 Bus1=243213959.2.3 Bus2=243213911.2.3 LineCode=4/0_CLP_2PH_16KV_2 Length=0.007483 units=km
New Line.243213816$P5140197-1 phases=2 Bus1=243213819.1.3 Bus2=32523197.1.3 LineCode=4/0_CLP_2PH_16KV_2 Length=0.009558 units=km
New Line.P5140196-1$243213909 phases=2 Bus1=243213912.2.3 Bus2=243213860.2.3 LineCode=4/0_CLP_2PH_16KV_2 Length=0.097341 units=km
New Line.186077127$P5140198-1 phases=2 Bus1=186077130.2.3 Bus2=32523149.2.3 LineCode=4/0_CLP_2PH_16KV_2 Length=0.002924 units=km
New Line.ND32583007$1495699E phases=3 Bus1=32583007.1.2.3 Bus2=32522780.1.2.3 LineCode=3/0_ACSR_3PH_16KV_3 Length=0.111644 units=km
New Line.1495699E$ND90568810 phases=3 Bus1=32522780.1.2.3 Bus2=90568810.1.2.3 LineCode=3/0_ACSR_3PH_16KV_3 Length=0.062247 units=km
New Line.186103427$B5563754-2 phases=2 Bus1=186103429.1.3 Bus2=94861210.1.3 LineCode=2_CLP_2PH_16KV_2 Length=0.036715 units=km
New Line.294717407$ND94861979 phases=2 Bus1=294717409.2.3 Bus2=94861979.2.3 LineCode=2_CLP_2PH_16KV_2 Length=0.209132 units=km
New Line.ND94862033$294717434 phases=2 Bus1=294717436.1.3 Bus2=94862033.1.3 LineCode=2_CLP_2PH_16KV_2 Length=0.330574 units=km
New Line.1446641E$P5139597-1 phases=3 Bus1=32524108.1.2.3 Bus2=32524063.1.2.3 LineCode=1/0_CLP_3PH_16KV_3 Length=0.038759 units=km
New Line.ND94861979$B5563747-2 phases=2 Bus1=94861979.2.3 Bus2=94859780.2.3 LineCode=2_CLP_2PH_16KV_2 Length=0.015984 units=km
New Line.ND94860015$ND94862033 phases=2 Bus1=94862033.1.3 Bus2=94860015.1.3 LineCode=1/0_CLP_2PH_16KV_2 Length=0.060588 units=km
New Line.B5563750-1$ND94862033 phases=2 Bus1=94862033.1.3 Bus2=94860997.1.3 LineCode=2_CLP_2PH_16KV_2 Length=0.097717 units=km
New Line.ND94861979$ND94862119 phases=2 Bus1=94861979.2.3 Bus2=94862119.2.3 LineCode=2_CLP_2PH_16KV_2 Length=0.269112 units=km
New Line.ND94860015$B5563748-1 phases=2 Bus1=94860015.1.3 Bus2=94859567.1.3 LineCode=1/0_CLP_2PH_16KV_2 Length=0.133987 units=km
New Line.ND94860015$B5567420-2 phases=2 Bus1=94860015.1.3 Bus2=94859644.1.3 LineCode=2_CLP_2PH_16KV_2 Length=0.01808 units=km
New Line.ND94860015$B5563749-1 phases=2 Bus1=94860015.1.3 Bus2=94859703.1.3 LineCode=2_CLP_2PH_16KV_2 Length=0.106298 units=km
New Line.ND94862119$B5563757-1 phases=2 Bus1=94862119.2.3 Bus2=94860657.2.3 LineCode=2_CLP_2PH_16KV_2 Length=0.13308 units=km
New Line.B5563755-1$B5563754-1 phases=2 Bus1=94861201.1.3 Bus2=94861065.1.3 LineCode=2_CLP_2PH_16KV_2 Length=0.072151 units=km
New Line.J711A-3P$RCS5977-2 phases=3 Bus1=211118101.1.2.3 Bus2=211118529.1.2.3 LineCode=1/0_JCN_3PH_16KV_3 Length=0.064645 units=km
New Line.GS5746-1$GS6914-2 phases=3 Bus1=219377612.1.2.3 Bus2=223368580.1.2.3 LineCode=1000_JCN_3PH_16KV_3 Length=0.198747 units=km
New Line.RCS5977-1$GS6766-4 phases=3 Bus1=211118117.1.2.3 Bus2=211118336.1.2.3 LineCode=350_JCN_3PH_16KV_3 Length=0.039587 units=km
New Line.223659543$P5654520-1 phases=3 Bus1=223659546.1.2.3 Bus2=223659508.1.2.3 LineCode=1/0_JCN_3PH_16KV_3 Length=0.002795 units=km
New Line.GS6914-1$J255A-2P phases=3 Bus1=219377603.1.2.3 Bus2=244023991.1.2.3 LineCode=1/0_JCN_3PH_16KV_3 Length=0.163248 units=km
New Line.ND237224065$4827619E phases=3 Bus1=237224065.1.2.3 Bus2=237224043.1.2.3 LineCode=336_ACSR_3PH_16KV_3 Length=0.000827 units=km
New Line.1612823E$1612826E phases=3 Bus1=32495460.1.2.3 Bus2=32495431.1.2.3 LineCode=336_ACSR_3PH_16KV_3 Length=0.09151 units=km
New Line.4178435E$X14923E phases=3 Bus1=38345658.1.2.3 Bus2=38345683.1.2.3 LineCode=1/0_ACSR_3PH_16KV_3 Length=0.045375 units=km
New Line.871577E$ND151716282 phases=3 Bus1=32496727.1.2.3 Bus2=151716282.1.2.3 LineCode=1/0_ACSR_3PH_16KV_3 Length=0.028954 units=km
New Line.PS1601$4336666E phases=3 Bus1=32525019.1.2.3 Bus2=237296378.1.2.3 LineCode=336_ACSR_3PH_16KV_3 Length=0.004131 units=km
New Line.832018E$122218E phases=2 Bus1=32435614.2.3 Bus2=32435539.2.3 LineCode=1/0_ACSR_2PH_16KV_2 Length=0.043457 units=km
New Line.X16947E$1612829E phases=3 Bus1=237663870.1.2.3 Bus2=32495489.1.2.3 LineCode=336_ACSR_3PH_16KV_3 Length=0.031142 units=km
New Line.4375011E$ND32526352 phases=3 Bus1=32524811.1.2.3 Bus2=32526352.1.2.3 LineCode=336_ACSR_3PH_16KV_3 Length=0.011688 units=km
New Line.X14923E$ND38388248 phases=3 Bus1=38345683.1.2.3 Bus2=38388248.1.2.3 LineCode=1/0_ACSR_3PH_16KV_3 Length=0.046985 units=km
New Line.ND151716282$1701012EPH phases=3 Bus1=151716282.1.2.3 Bus2=151716217.1.2.3 LineCode=1/0_ACSR_3PH_16KV_3 Length=0.002681 units=km
New Line.ND32526352$ND237224065 phases=3 Bus1=32526352.1.2.3 Bus2=237224065.1.2.3 LineCode=336_ACSR_3PH_16KV_3 Length=0.034937 units=km
New Line.122218E$832017E phases=2 Bus1=32435539.2.3 Bus2=32435639.2.3 LineCode=1/0_ACSR_2PH_16KV_2 Length=0.031176 units=km
New Line.1612829E$1612823E phases=3 Bus1=32495489.1.2.3 Bus2=32495460.1.2.3 LineCode=336_ACSR_3PH_16KV_3 Length=0.032866 units=km
New Line.ND151716282$ND32526089 phases=3 Bus1=151716282.1.2.3 Bus2=32526089.1.2.3 LineCode=1/0_ACSR_3PH_16KV_3 Length=0.035942 units=km
New Line.ND38388248$1560718E phases=3 Bus1=38388248.1.2.3 Bus2=38345708.1.2.3 LineCode=1/0_ACSR_3PH_16KV_3 Length=0.04893 units=km
New Line.ND38388248$2244463E phases=3 Bus1=38388248.1.2.3 Bus2=38347871.1.2.3 LineCode=1/0_ACSR_3PH_16KV_3 Length=0.04893 units=km
New Line.ND237224065$PS1601 phases=3 Bus1=237296379.1.2.3 Bus2=237224065.1.2.3 LineCode=336_ACSR_3PH_16KV_3 Length=0.112755 units=km
New Line.ND32526089$1701010E phases=3 Bus1=32526089.1.2.3 Bus2=32435809.1.2.3 LineCode=1/0_ACSR_3PH_16KV_3 Length=0.045344 units=km
New Line.1560718E$1767705E phases=3 Bus1=38345708.1.2.3 Bus2=38345733.1.2.3 LineCode=1/0_ACSR_3PH_16KV_3 Length=0.027568 units=km
New Line.B5563750-2$B5563751-1 phases=2 Bus1=94861006.1.3 Bus2=94860929.1.3 LineCode=2_CLP_2PH_16KV_2 Length=0.089223 units=km
New Line.B5563757-2$B5563758-1 phases=2 Bus1=94860666.2.3 Bus2=94860589.2.3 LineCode=2_CLP_2PH_16KV_2 Length=0.055323 units=km
New Line.B5563755-2$B5563756-1 phases=2 Bus1=94861074.1.3 Bus2=94861133.1.3 LineCode=2_CLP_2PH_16KV_2 Length=0.088091 units=km
New Line.B5563751-2$B5563752-1 phases=2 Bus1=94860938.1.3 Bus2=94860861.1.3 LineCode=2_CLP_2PH_16KV_2 Length=0.086702 units=km
New Line.B5563758-2$B5563759-2 phases=2 Bus1=94860598.2.3 Bus2=94860530.2.3 LineCode=2_CLP_2PH_16KV_2 Length=0.036854 units=km
New Line.B5563752-2$B5563753-2 phases=2 Bus1=94860870.1.3 Bus2=94860802.1.3 LineCode=2_CLP_2PH_16KV_2 Length=0.060655 units=km
New Line.B5563759-1$B5563760-1 phases=2 Bus1=94860521.2.3 Bus2=94860453.2.3 LineCode=2_CLP_2PH_16KV_2 Length=0.056094 units=km
New Line.B5563760-2$B5563761-2 phases=2 Bus1=94860462.2.3 Bus2=94860394.2.3 LineCode=2_CLP_2PH_16KV_2 Length=0.021314 units=km
New Line.1701012EPH$194443011 phases=3 Bus1=151716218.1.2.3 Bus2=194443013.1.2.3 LineCode=2_JCN_3PH_16KV_3 Length=0.020502 units=km
New Line.2244463E$194453790 phases=3 Bus1=38347872.1.2.3 Bus2=194453792.1.2.3 LineCode=1/0_CLP_3PH_16KV_3 Length=0.008515 units=km
New Line.ND32526766$J714A-3P phases=3 Bus1=32525120.1.2.3 Bus2=32526766.1.2.3 LineCode=1/0_CLP_3PH_16KV_3 Length=0.132532 units=km
New Line.ND32526766$222388020 phases=3 Bus1=32526766.1.2.3 Bus2=222388022.1.2.3 LineCode=1/0_JCN_3PH_16KV_3 Length=0.029976 units=km
New Line.GS5746-2$ND223368831 phases=3 Bus1=223368589.1.2.3 Bus2=223368831.1.2.3 LineCode=1000_JCN_3PH_16KV_3 Length=0.21659 units=km
New Line.4827619E$J233A-1P phases=2 Bus1=237224044.1.3 Bus2=237224086.1.3 LineCode=1/0_JCN_2PH_16KV_2 Length=0.108137 units=km
New Line.GS6752-2$254262759 phases=2 Bus1=220531313.2.3 Bus2=254262761.2.3 LineCode=1/0_JCN_2PH_16KV_2 Length=0.123543 units=km
New Line.ND32526766$4336671E phases=3 Bus1=32526766.1.2.3 Bus2=32525080.1.2.3 LineCode=1/0_CLP_3PH_16KV_3 Length=0.146427 units=km
New Line.B5563761-1$B5563762-2 phases=2 Bus1=94860385.2.3 Bus2=94860326.2.3 LineCode=2_CLP_2PH_16KV_2 Length=0.075189 units=km
New Line.1701010E$2244471E phases=3 Bus1=32435809.1.2.3 Bus2=32524226.1.2.3 LineCode=1/0_ACSR_3PH_16KV_3 Length=0.032963 units=km
New Line.1612826E$ND32527008 phases=3 Bus1=32495431.1.2.3 Bus2=32527008.1.2.3 LineCode=336_ACSR_3PH_16KV_3 Length=0.065717 units=km
New Line.1767705E$1791943E phases=3 Bus1=38345733.1.2.3 Bus2=38345758.1.2.3 LineCode=1/0_ACSR_3PH_16KV_3 Length=0.031317 units=km
New Line.ND32527008$1158947E phases=3 Bus1=32527008.1.2.3 Bus2=32495576.1.2.3 LineCode=336_ACSR_3PH_16KV_3 Length=0.044191 units=km
New Line.ND32527008$1158950E phases=3 Bus1=32527008.1.2.3 Bus2=32496380.1.2.3 LineCode=336_ACSR_3PH_16KV_3 Length=0.073993 units=km
New Line.194443011$P5619605-1 phases=3 Bus1=194443014.1.2.3 Bus2=151716236.1.2.3 LineCode=2_JCN_3PH_16KV_3 Length=0.001712 units=km
New Line.GS6696-3$GS5746-3 phases=3 Bus1=223368598.1.2.3 Bus2=188203496.1.2.3 LineCode=1000_JCN_3PH_16KV_3 Length=0.048337 units=km
New Line.GS6752-1$GS6753-1 phases=3 Bus1=220531304.1.2.3 Bus2=220531464.1.2.3 LineCode=1000_JCN_3PH_16KV_3 Length=0.529168 units=km
New Line.GS6842-1$ND223368831 phases=3 Bus1=223368831.1.2.3 Bus2=223366088.1.2.3 LineCode=1000_JCN_3PH_16KV_3 Length=0.130818 units=km
New Line.ND223368831$GS6845-4 phases=3 Bus1=223368831.1.2.3 Bus2=223366411.1.2.3 LineCode=1000_JCN_3PH_16KV_3 Length=0.248511 units=km
New Line.J255A-3P$244024177 phases=3 Bus1=244023975.1.2.3 Bus2=244024179.1.2.3 LineCode=1/0_JCN_3PH_16KV_3 Length=0.100149 units=km
New Line.2244471E$P5139479-1 phases=3 Bus1=32524227.1.2.3 Bus2=32523416.1.2.3 LineCode=1/0_JCN_3PH_16KV_3 Length=0.055708 units=km
New Line.B5463721-2$J711A-1P phases=2 Bus1=211118521.1.3 Bus2=32524960.1.3 LineCode=1/0_CLP_2PH_16KV_2 Length=0.126653 units=km
New Line.194453790$P5139463 phases=3 Bus1=194453793.1.2.3 Bus2=38347854.1.2.3 LineCode=1/0_CLP_3PH_16KV_3 Length=0.00584 units=km
New Line.ND168845171$GS5746-4 phases=3 Bus1=223368607.1.2.3 Bus2=168845171.1.2.3 LineCode=350_CLP_3PH_16KV_3 Length=0.069471 units=km
New Line.254262759$P5650728-1 phases=2 Bus1=254262762.2.3 Bus2=220531694.2.3 LineCode=1/0_JCN_2PH_16KV_2 Length=0.003451 units=km
New Line.222388020$P5047632-1 phases=3 Bus1=222388023.1.2.3 Bus2=32524243.1.2.3 LineCode=1/0_JCN_3PH_16KV_3 Length=0.003574 units=km
New Line.ND168845171$J345A-3P phases=3 Bus1=168845171.1.2.3 Bus2=168845065.1.2.3 LineCode=350_CLP_3PH_16KV_3 Length=0.033204 units=km
New Line.GS5743-1$ND168845171 phases=3 Bus1=168845171.1.2.3 Bus2=20042530.1.2.3 LineCode=350_CLP_3PH_16KV_3 Length=0.276744 units=km
New Line.J627A-4P$GS5678-2 phases=3 Bus1=207769600.1.2.3 Bus2=173770871.1.2.3 LineCode=2_CLP_3PH_16KV_3 Length=0.085224 units=km
New Line.1836611E$GS5678-3 phases=3 Bus1=207769609.1.2.3 Bus2=32496528.1.2.3 LineCode=1000_JCN_3PH_16KV_3 Length=0.102292 units=km
New Line.J627A-1P$P5761893-1 phases=3 Bus1=173770855.1.2.3 Bus2=235952296.1.2.3 LineCode=1/0_JCN_3PH_16KV_3 Length=0.223789 units=km
New Line.1239092E$222387989 phases=3 Bus1=32434845.1.2.3 Bus2=222387991.1.2.3 LineCode=1/0_JCN_3PH_16KV_3 Length=0.033883 units=km
New Line.ND223473327$4951602E phases=3 Bus1=223473327.1.2.3 Bus2=223473305.1.2.3 LineCode=1/0_ACSR_3PH_16KV_3 Length=0.029431 units=km
New Line.244024177$P5047641-1 phases=3 Bus1=244024180.1.2.3 Bus2=244024098.1.2.3 LineCode=1/0_JCN_3PH_16KV_3 Length=0.002797 units=km
New Line.2380444E$293017026 phases=3 Bus1=38347817.1.2.3 Bus2=293017028.1.2.3 LineCode=1/0_CLP_3PH_16KV_3 Length=0.065539 units=km
New Line.2380815E$302850109 phases=3 Bus1=32496558.1.2.3 Bus2=302850111.1.2.3 LineCode=1/0_CIC_3PH_16KV_3 Length=0.059388 units=km
New Line.222387989$P5139307-1 phases=3 Bus1=222387992.1.2.3 Bus2=32524182.1.2.3 LineCode=1/0_JCN_3PH_16KV_3 Length=0.00515 units=km
New Line.ND32526918$4531810E phases=3 Bus1=32526918.1.2.3 Bus2=32524168.1.2.3 LineCode=336_ACSR_3PH_16KV_3 Length=0.061486 units=km
New Line.1378366E$GS6514-3 phases=3 Bus1=32496629.1.2.3 Bus2=186076843.1.2.3 LineCode=1/0_JCN_3PH_16KV_3 Length=0.037446 units=km
New Line.302850109$P5139855-1 phases=3 Bus1=302850112.1.2.3 Bus2=32523368.1.2.3 LineCode=1/0_CIC_3PH_16KV_3 Length=0.003066 units=km
New Line.GS6696-4$J878B-1P phases=3 Bus1=188203505.1.2.3 Bus2=185141414.1.2.3 LineCode=1000_JCN_3PH_16KV_3 Length=0.042856 units=km
New Line.4951602E$223473391 phases=3 Bus1=223473306.1.2.3 Bus2=223473393.1.2.3 LineCode=1/0_JCN_3PH_16KV_3 Length=0.044096 units=km
New Line.GS6696-2$0221462 phases=3 Bus1=188203487.1.2.3 Bus2=223668912.1.2.3 LineCode=1/0_JCN_3PH_16KV_3 Length=0.069255 units=km
New Line.GS6753-2$ND235862224 phases=3 Bus1=220531473.1.2.3 Bus2=235862224.1.2.3 LineCode=1000_JCN_3PH_16KV_3 Length=0.537099 units=km
New Line.J233A-3P$P5718232-1 phases=2 Bus1=237224094.1.3 Bus2=237224183.1.3 LineCode=1/0_JCN_2PH_16KV_2 Length=0.091844 units=km
New Line.293017026$P5140069 phases=3 Bus1=293017029.1.2.3 Bus2=38347833.1.2.3 LineCode=1/0_CLP_3PH_16KV_3 Length=0.00571 units=km
New Line.GS6696-1$ND211495194 phases=3 Bus1=188203478.1.2.3 Bus2=211495108.1.2.3 LineCode=1/0_JCN_3PH_16KV_3 Length=0.149211 units=km
New Line.GS6753-3$220531645 phases=2 Bus1=220531482.1.2 Bus2=220531647.1.2 LineCode=1/0_JCN_2PH_16KV_2 Length=0.023567 units=km
New Line.ND235862224$RCS7017-2 phases=3 Bus1=235862224.1.2.3 Bus2=224183898.1.2.3 LineCode=1000_JCN_3PH_16KV_3 Length=0.043164 units=km
New Line.ND235862224$V5741375PT phases=3 Bus1=235862224.1.2.3 Bus2=235862207.1.2.3 LineCode=1/0_JCN_3PH_16KV_3 Length=0.000257 units=km
New Line.GS6845-6$300878435 phases=3 Bus1=223366429.1.2.3 Bus2=300878437.1.2.3 LineCode=1/0_JCN_3PH_16KV_3 Length=0.106119 units=km
New Line.ND38388158$4336674E phases=3 Bus1=38386108.1.2.3 Bus2=38388158.1.2.3 LineCode=350_CLP_3PH_16KV_3 Length=0.072334 units=km
New Line.B5463724-2$ND38388158 phases=3 Bus1=38388158.1.2.3 Bus2=38386150.1.2.3 LineCode=1/0_CLP_3PH_16KV_3 Length=0.078795 units=km
New Line.ND38388158$BF45538 phases=3 Bus1=38388158.1.2.3 Bus2=38386210.1.2.3 LineCode=1/0_AL_3PH_16KV_3 Length=0.115626 units=km
New Line.GS5979-4$ND38388158 phases=3 Bus1=38388158.1.2.3 Bus2=38386267.1.2.3 LineCode=350_CLP_3PH_16KV_3 Length=0.032736 units=km
New Line.1423398E$1446711E phases=3 Bus1=32435312.1.2.3 Bus2=32435254.1.2.3 LineCode=336_ACSR_3PH_16KV_3 Length=0.148612 units=km
New Line.1713899E$GS5686-1 phases=3 Bus1=32523461.1.2.3 Bus2=214708041.1.2.3 LineCode=500_PILC_3PH_16KV_3 Length=0.118106 units=km
New Line.223473391$P5654487-1 phases=3 Bus1=223473394.1.2.3 Bus2=223473345.1.2.3 LineCode=1/0_JCN_3PH_16KV_3 Length=0.003045 units=km
New Line.GS6845-1$GS7181-4 phases=3 Bus1=223366384.1.2.3 Bus2=263637395.1.2.3 LineCode=1000_JCN_3PH_16KV_3 Length=0.23979 units=km
New Line.GS6753-4$GS5580-2 phases=3 Bus1=220531491.1.2.3 Bus2=94859127.1.2.3 LineCode=1000_JCN_3PH_16KV_3 Length=0.19227 units=km
New Line.220531645$P5650729-1 phases=2 Bus1=220531648.1.2 Bus2=220531599.1.2 LineCode=1/0_JCN_2PH_16KV_2 Length=0.00239 units=km
New Line.300878435$P5728558-1 phases=3 Bus1=300878438.1.2.3 Bus2=223366607.1.2.3 LineCode=1/0_JCN_3PH_16KV_3 Length=0.001264 units=km
New Line.4116232E$280833375 phases=2 Bus1=32522839.1.2 Bus2=280833377.1.2 LineCode=1/0_JCN_2PH_16KV_2 Length=0.004865 units=km
New Line.1673956EPH$176745492 phases=3 Bus1=69866734.1.2.3 Bus2=176745494.1.2.3 LineCode=1/0_CLP_3PH_16KV_3 Length=0.008974 units=km
New Line.186077127$ND243213959 phases=2 Bus1=243213959.2.3 Bus2=186077129.2.3 LineCode=1/0_JCN_2PH_16KV_2 Length=0.097341 units=km
New Line.ND32526860$1336014E phases=3 Bus1=32526860.1.2.3 Bus2=203992999.1.2.3 LineCode=336_ACSR_3PH_16KV_3 Length=0.039333 units=km
New Line.ND185443135$1336014E phases=3 Bus1=203992999.1.2.3 Bus2=185443135.1.2.3 LineCode=1/0_ACSR_3PH_16KV_3 Length=0.034319 units=km
New Line.ND242263329$GS5979-3 phases=3 Bus1=38386259.1.2.3 Bus2=242263329.1.2.3 LineCode=350_CLP_3PH_16KV_3 Length=0.397039 units=km
New Line.J878B-3P$188523837 phases=3 Bus1=185141422.1.2.3 Bus2=188523839.1.2.3 LineCode=1/0_JCN_3PH_16KV_3 Length=0.102076 units=km
New Line.280833375$PME0907-1 phases=2 Bus1=280833378.1.2 Bus2=32524389.1.2 LineCode=1/0_JCN_2PH_16KV_2 Length=0.001835 units=km
New Line.ND185443135$1495672PH phases=3 Bus1=185443135.1.2.3 Bus2=185443077.1.2.3 LineCode=1/0_ACSR_3PH_16KV_3 Length=0.001921 units=km
New Line.1495673E$ND185443135 phases=3 Bus1=185443135.1.2.3 Bus2=32435364.1.2.3 LineCode=1/0_ACSR_3PH_16KV_3 Length=0.043518 units=km
New Line.GS5978-3$ND242263329 phases=3 Bus1=242263329.1.2.3 Bus2=32525378.1.2.3 LineCode=350_CLP_3PH_16KV_3 Length=0.397034 units=km
New Line.GS5748-4$GS5979-2 phases=3 Bus1=38386243.1.2.3 Bus2=38293756.1.2.3 LineCode=1000_JCN_3PH_16KV_3 Length=0.300921 units=km
New Line.GS5979-1$4336676E phases=3 Bus1=38386251.1.2.3 Bus2=38386095.1.2.3 LineCode=1/0_AL_3PH_16KV_3 Length=0.204941 units=km
New Line.238399519$1495672PH phases=3 Bus1=185443078.1.2.3 Bus2=238399521.1.2.3 LineCode=2_JCN_3PH_16KV_3 Length=0.009549 units=km
New Line.GS5580-1$GS0723-1 phases=3 Bus1=94859135.1.2.3 Bus2=201248809.1.2.3 LineCode=750_CLP_3PH_16KV_3 Length=0.273823 units=km
New Line.P5434614-1$176745492 phases=3 Bus1=176745495.1.2.3 Bus2=69866752.1.2.3 LineCode=1/0_CLP_3PH_16KV_3 Length=0.007384 units=km
New Line.GS5580-3$ND94861862 phases=3 Bus1=94859143.1.2.3 Bus2=94861862.1.2.3 LineCode=750_CLP_3PH_16KV_3 Length=0.020597 units=km
New Line.GS5978-2$J713A-1P phases=3 Bus1=32525362.1.2.3 Bus2=169309418.1.2.3 LineCode=1/0_JCN_3PH_16KV_3 Length=0.077142 units=km
New Line.P5653097-2$238399519 phases=3 Bus1=238399522.1.2.3 Bus2=185442891.1.2.3 LineCode=2_JCN_3PH_16KV_3 Length=0.003779 units=km
New Line.GS5978-4$RCS5977-6 phases=3 Bus1=32525386.1.2.3 Bus2=211118141.1.2.3 LineCode=350_CLP_3PH_16KV_3 Length=0.346604 units=km
New Line.GS5748-3$ND219377795 phases=3 Bus1=38293748.1.2.3 Bus2=219377795.1.2.3 LineCode=1000_JCN_3PH_16KV_3 Length=0.142037 units=km
New Line.188203868$ND211495192 phases=3 Bus1=211495084.1.2.3 Bus2=188203871.1.2.3 LineCode=1/0_JCN_3PH_16KV_3 Length=0.002297 units=km
New Line.188523837$P5664158-1 phases=3 Bus1=188523840.1.2.3 Bus2=188523791.1.2.3 LineCode=1/0_JCN_3PH_16KV_3 Length=0.003052 units=km
New Line.ND94861862$ND94861719 phases=3 Bus1=94861862.1.2.3 Bus2=94861719.1.2.3 LineCode=2_CLP_3PH_16KV_3 Length=0.002625 units=km
New Line.ND94861862$ND94861873 phases=3 Bus1=94861862.1.2.3 Bus2=94861873.1.2.3 LineCode=750_CLP_3PH_16KV_3 Length=0.013567 units=km
New Line.ND94861719$186103386 phases=2 Bus1=94861719.1.3 Bus2=186103388.1.3 LineCode=2_CLP_2PH_16KV_2 Length=0.064093 units=km
New Line.GS7181-1$PME7182-2 phases=3 Bus1=263637368.1.2.3 Bus2=263637548.1.2.3 LineCode=350_JCN_3PH_16KV_3 Length=0.105049 units=km
New Line.ND94861873$294717380 phases=3 Bus1=94861873.1.2.3 Bus2=294717382.1.2.3 LineCode=750_CLP_3PH_16KV_3 Length=0.060407 units=km
New Line.ND94861719$294717466 phases=3 Bus1=94861719.1.2.3 Bus2=294717468.1.2.3 LineCode=2_CLP_3PH_16KV_3 Length=0.086799 units=km
New Line.ND94861873$PMS5581-1 phases=3 Bus1=94861873.1.2.3 Bus2=94859327.1.2.3 LineCode=750_CLP_3PH_16KV_3 Length=0.037032 units=km
New Line.188203868$188203909 phases=3 Bus1=188203870.1.2.3 Bus2=188203911.1.2.3 LineCode=1/0_JCN_3PH_16KV_3 Length=0.062231 units=km
New Line.PME0907-2$280833406 phases=2 Bus1=32524380.1.2 Bus2=280833409.1.2 LineCode=1/0_JCN_2PH_16KV_2 Length=0.001163 units=km
New Line.294717380$PMS5582-1 phases=3 Bus1=294717383.1.2.3 Bus2=94859406.1.2.3 LineCode=750_CLP_3PH_16KV_3 Length=0.001457 units=km
New Line.294717466$PME5584-1 phases=3 Bus1=294717469.1.2.3 Bus2=94859485.1.2.3 LineCode=2_CLP_3PH_16KV_3 Length=0.002632 units=km
New Line.PMS5583-1$186103386 phases=2 Bus1=186103389.1.3 Bus2=94861652.1.3 LineCode=2_CLP_2PH_16KV_2 Length=0.07148 units=km
New Line.PME7182-3$263637733 phases=3 Bus1=263637539.1.2.3 Bus2=263637736.1.2.3 LineCode=1/0_JCN_3PH_16KV_3 Length=0.006778 units=km
New Line.ND188203853$188203909 phases=3 Bus1=188203912.1.2.3 Bus2=301027507.1.2.3 LineCode=1/0_JCN_3PH_16KV_3 Length=0.006182 units=km
New Line.280833406$P5140202-2 phases=2 Bus1=280833408.1.2 Bus2=90568614.1.2 LineCode=1/0_JCN_2PH_16KV_2 Length=0.01073 units=km
New Line.ND219377795$GS6914-5 phases=3 Bus1=219377795.1.2.3 Bus2=219377639.1.2.3 LineCode=1000_JCN_3PH_16KV_3 Length=0.140137 units=km
New Line.1378344E$GS5978-1 phases=3 Bus1=32525370.1.2.3 Bus2=32525712.1.2.3 LineCode=2_CLP_3PH_16KV_3 Length=0.055713 units=km
New Line.V5393261$GS5748-2 phases=3 Bus1=38293732.1.2.3 Bus2=38387437.1.2.3 LineCode=1/0_CLP_3PH_16KV_3 Length=0.015529 units=km
New Line.V5393261$ND242263493 phases=3 Bus1=38387437.1.2.3 Bus2=242263493.1.2.3 LineCode=1/0_CLP_3PH_16KV_3 Length=0.030049 units=km
New Line.194453820$ND242263493 phases=3 Bus1=242263493.1.2.3 Bus2=194453822.1.2.3 LineCode=1/0_CLP_3PH_16KV_3 Length=0.073304 units=km
New Line.1673986E$237902750 phases=3 Bus1=38385959.1.2.3 Bus2=237902752.1.2.3 LineCode=2_CLP_3PH_16KV_3 Length=0.026348 units=km
New Line.1612809E$301027532 phases=3 Bus1=32525742.1.2.3 Bus2=301027534.1.2.3 LineCode=1/0_CLP_3PH_16KV_3 Length=0.108315 units=km
New Line.PMS5581-2$ND94862145 phases=2 Bus1=94859318.1.2 Bus2=94862145.1.2 LineCode=2_CLP_2PH_16KV_2 Length=0.261791 units=km
New Line.263637733$263637760 phases=3 Bus1=263637735.1.2.3 Bus2=263637762.1.2.3 LineCode=1/0_JCN_3PH_16KV_3 Length=0.024083 units=km
New Line.ND38348566$ND242263493 phases=3 Bus1=242263493.1.2.3 Bus2=38348544.1.2.3 LineCode=1/0_CLP_3PH_16KV_3 Length=0.174501 units=km
New Line.4835942EPH$ND223659487 phases=3 Bus1=223659487.1.2.3 Bus2=223659464.1.2.3 LineCode=4_ACSR_3PH_16KV_3 Length=0.002893 units=km
New Line.ND237296456$RCS5977-5 phases=3 Bus1=211118133.1.2.3 Bus2=237296456.1.2.3 LineCode=1000_JCN_3PH_16KV_3 Length=0.027702 units=km
New Line.ND32584101$J713A-2P phases=3 Bus1=169309442.1.2.3 Bus2=32584101.1.2.3 LineCode=1/0_CLP_3PH_16KV_3 Length=0.207618 units=km
New Line.ND94861320$ND94862145 phases=2 Bus1=94862145.1.2 Bus2=94861320.1.2 LineCode=2_CLP_2PH_16KV_2 Length=0.14724 units=km
New Line.ND94862167$ND94862145 phases=2 Bus1=94862145.1.2 Bus2=94862167.1.2 LineCode=2_CLP_2PH_16KV_2 Length=0.005374 units=km
New Line.PMS5583-2$186103427 phases=2 Bus1=94861643.1.3 Bus2=186103430.1.3 LineCode=2_CLP_2PH_16KV_2 Length=0.035767 units=km
New Line.PMS5582-2$294717407 phases=2 Bus1=94859397.2.3 Bus2=294717410.2.3 LineCode=2_CLP_2PH_16KV_2 Length=0.153087 units=km
New Line.294717434$PME5584-2 phases=2 Bus1=94859476.1.3 Bus2=294717437.1.3 LineCode=2_CLP_2PH_16KV_2 Length=0.172609 units=km
New Line.301027532$P5488366-1 phases=3 Bus1=301027535.1.2.3 Bus2=32525758.1.2.3 LineCode=1/0_CLP_3PH_16KV_3 Length=0.002071 units=km
New Line.P5140202-1$P5140201-1 phases=2 Bus1=90568605.1.2 Bus2=90568683.1.2 LineCode=1/0_AL_2PH_16KV_2 Length=0.10727 units=km
New Line.ND94861320$B5563764-2 phases=2 Bus1=94861320.1.2 Bus2=94860122.1.2 LineCode=2_CLP_2PH_16KV_2 Length=0.042795 units=km
New Line.ND94862167$B5567422-1 phases=2 Bus1=94862167.1.2 Bus2=94860181.1.2 LineCode=2_CLP_2PH_16KV_2 Length=0.099137 units=km
New Line.ND94861320$B5567426-2 phases=2 Bus1=94861320.1.2 Bus2=94860258.1.2 LineCode=2_CLP_2PH_16KV_2 Length=0.035037 units=km
New Line.ND94862605$ND94862167 phases=2 Bus1=94862167.1.2 Bus2=94862605.1.2 LineCode=2_CLP_2PH_16KV_2 Length=0.183782 units=km
New Line.263637760$ND263637664 phases=3 Bus1=263637763.1.2.3 Bus2=263637646.1.2.3 LineCode=1/0_JCN_3PH_16KV_3 Length=0.00653 units=km
New Line.B5563763-1$ND94862605 phases=2 Bus1=94862605.1.2 Bus2=94860045.1.2 LineCode=2_CLP_2PH_16KV_2 Length=0.176338 units=km
New Line.B5567424-1$ND94862605 phases=2 Bus1=94862605.1.2 Bus2=94860725.1.2 LineCode=2_CLP_2PH_16KV_2 Length=0.079308 units=km
New Line.ND184157546$RCS5977-4 phases=3 Bus1=211118125.1.2.3 Bus2=184157546.1.2.3 LineCode=350_CLP_3PH_16KV_3 Length=0.137351 units=km
New Line.ND237296456$V5463711PT phases=3 Bus1=237296456.1.2.3 Bus2=237296439.1.2.3 LineCode=1/0_JCN_3PH_16KV_3 Length=0.000863 units=km
New Line.4336666E$ND237296456 phases=3 Bus1=237296456.1.2.3 Bus2=32525020.1.2.3 LineCode=1/0_JCN_3PH_16KV_3 Length=0.146165 units=km
New Line.ND32584101$ND32584144 phases=3 Bus1=32584101.1.2.3 Bus2=32584144.1.2.3 LineCode=1/0_CLP_3PH_16KV_3 Length=0.052623 units=km
New Line.194453820$P5436604-1 phases=3 Bus1=194453823.1.2.3 Bus2=38384562.1.2.3 LineCode=1/0_CLP_3PH_16KV_3 Length=0.005336 units=km
New Line.237902750$P5441068-1 phases=3 Bus1=237902753.1.2.3 Bus2=38385975.1.2.3 LineCode=2_CLP_3PH_16KV_3 Length=0.002432 units=km
New Line.ND184157546$ND184157266 phases=3 Bus1=184157546.1.2.3 Bus2=184157174.1.2.3 LineCode=1/0_JCN_3PH_16KV_3 Length=0.085395 units=km
New Line.GS6752-4$RCS5977-3 phases=3 Bus1=211118109.1.2.3 Bus2=220531331.1.2.3 LineCode=1000_JCN_3PH_16KV_3 Length=0.106321 units=km
New Line.4835942EPH$223659543 phases=3 Bus1=223659465.1.2.3 Bus2=223659545.1.2.3 LineCode=1/0_JCN_3PH_16KV_3 Length=0.083691 units=km
New Line.ND32584144$J714A-4P phases=3 Bus1=32584144.1.2.3 Bus2=32525128.1.2.3 LineCode=1/0_CLP_3PH_16KV_3 Length=0.01656 units=km
New Line.B5463722-2$ND32584144 phases=2 Bus1=32584144.1.2 Bus2=32525282.1.2 LineCode=2_CLP_2PH_16KV_2 Length=0.061124 units=km
New Line.1791943E$ND38440856 phases=3 Bus1=38345758.1.2.3 Bus2=38440856.1.2.3 LineCode=1/0_ACSR_3PH_16KV_3 Length=0.016123 units=km
New Line.1158947E$ND32582946 phases=3 Bus1=32495576.1.2.3 Bus2=32582946.1.2.3 LineCode=336_ACSR_3PH_16KV_3 Length=0.037242 units=km
New Line.1158950E$ND32583007 phases=3 Bus1=32496380.1.2.3 Bus2=32583007.1.2.3 LineCode=336_ACSR_3PH_16KV_3 Length=0.092883 units=km
New Line.ND38440856$4702230E phases=3 Bus1=38440856.1.2.3 Bus2=38345783.1.2.3 LineCode=1/0_ACSR_3PH_16KV_3 Length=0.048633 units=km
New Line.ND38440856$2380444E phases=3 Bus1=38440856.1.2.3 Bus2=38347816.1.2.3 LineCode=1/0_ACSR_3PH_16KV_3 Length=0.048633 units=km
New Line.4336671E$ND223473327 phases=3 Bus1=32525079.1.2.3 Bus2=223473327.1.2.3 LineCode=1/0_ACSR_3PH_16KV_3 Length=0.001223 units=km
New Line.ND32582946$1761692E phases=3 Bus1=32582946.1.2.3 Bus2=32495404.1.2.3 LineCode=1/0_ACSR_3PH_16KV_3 Length=0.11405 units=km
...

! Switches
New Line.REPUBLIC$VULTEE_RCS0085$RCS0085 phases=3 Bus1=32526035.1.2.3 Bus2=-77777732526035.1.2.3 switch=y r1=0.001 x1=0.001 r0=0.001 x0=0.001 Length=0.001 units=km
New Line.933212E:139469189 phases=3 Bus1=139469191.1.2.3 Bus2=139469192.1.2.3 switch=y r1=0.001 x1=0.001 r0=0.001 x0=0.001 Length=0.001 units=km
New Line.1767603E:32435704 phases=3 Bus1=32435706.1.2.3 Bus2=32435707.1.2.3 switch=y r1=0.001 x1=0.001 r0=0.001 x0=0.001 Length=0.001 units=km
New Line.871579E:32435845 phases=3 Bus1=32435847.1.2.3 Bus2=32435848.1.2.3 switch=y r1=0.001 x1=0.001 r0=0.001 x0=0.001 Length=0.001 units=km
New Line.1612824E:32495498 phases=3 Bus1=32495500.1.2.3 Bus2=32495501.1.2.3 switch=y r1=0.001 x1=0.001 r0=0.001 x0=0.001 Length=0.001 units=km
New Line.455681E:32496682 phases=2 Bus1=32496684.2.3 Bus2=32496685.2.3 switch=y r1=0.001 x1=0.001 r0=0.001 x0=0.001 Length=0.001 units=km
New Line.4178435E:38345640 phases=3 Bus1=38345642.1.2.3 Bus2=38345643.1.2.3 switch=y r1=0.001 x1=0.001 r0=0.001 x0=0.001 Length=0.001 units=km
New Line.X16947E:237663851 phases=3 Bus1=237663853.1.2.3 Bus2=237663854.1.2.3 switch=y r1=0.001 x1=0.001 r0=0.001 x0=0.001 Length=0.001 units=km
New Line.832018E:32435596 phases=2 Bus1=32435598.2.3 Bus2=32435599.2.3 switch=y r1=0.001 x1=0.001 r0=0.001 x0=0.001 Length=0.001 units=km
New Line.871577E:32496707 phases=3 Bus1=32496709.1.2.3 Bus2=32496710.1.2.3 switch=y r1=0.001 x1=0.001 r0=0.001 x0=0.001 Length=0.001 units=km
New Line.4375011E:32524791 phases=3 Bus1=32524793.1.2.3 Bus2=32524794.1.2.3 switch=y r1=0.001 x1=0.001 r0=0.001 x0=0.001 Length=0.001 units=km
New Line.4986746E:38345665 phases=3 Bus1=38345667.1.2.3 Bus2=38345668.1.2.3 switch=y r1=0.001 x1=0.001 r0=0.001 x0=0.001 Length=0.001 units=km
New Line.122218E:32435521 phases=2 Bus1=32435523.2.3 Bus2=32435524.2.3 switch=y r1=0.001 x1=0.001 r0=0.001 x0=0.001 Length=0.001 units=km
New Line.1612829E:32495469 phases=3 Bus1=32495471.1.2.3 Bus2=32495472.1.2.3 switch=y r1=0.001 x1=0.001 r0=0.001 x0=0.001 Length=0.001 units=km
New Line.838056E:BF44236 phases=3 Bus1=32526333.1.2.3 Bus2=32526334.1.2.3 switch=y r1=0.001 x1=0.001 r0=0.001 x0=0.001 Length=0.001 units=km
New Line.4087103E:BF45444 phases=3 Bus1=194247929.1.2.3 Bus2=194247930.1.2.3 switch=y r1=0.001 x1=0.001 r0=0.001 x0=0.001 Length=0.001 units=km
New Line.263637653$P5785961 phases=3 Bus1=263637646.1.2.3 Bus2=263637647.1.2.3 switch=y r1=0.001 x1=0.001 r0=0.001 x0=0.001 Length=0.001 units=km
New Line.184157195$184157139 phases=3 Bus1=184157174.1.2.3 Bus2=184157142.1.2.3 switch=y r1=0.001 x1=0.001 r0=0.001 x0=0.001 Length=0.001 units=km
New Line.223659543 phases=3 Bus1=223659545.1.2.3 Bus2=223659546.1.2.3 switch=y r1=0.001 x1=0.001 r0=0.001 x0=0.001 Length=0.001 units=km
New Line.GS6752-3$220531328 phases=3 Bus1=220531296.1.2.3 Bus2=220531290.1.2.3 switch=y r1=0.001 x1=0.001 r0=0.001 x0=0.001 Length=0.001 units=km
New Line.32525117$32525125 phases=3 Bus1=32525129.1.2.3 Bus2=32525121.1.2.3 switch=y r1=0.001 x1=0.001 r0=0.001 x0=0.001 Length=0.001 units=km
New Line.211118534$211118526 phases=3 Bus1=211118530.1.2.3 Bus2=211118538.1.2.3 switch=y r1=0.001 x1=0.001 r0=0.001 x0=0.001 Length=0.001 units=km
New Line.GS6752-2$GS6752-3 phases=3 Bus1=220531290.1.2.3 Bus2=220531284.1.2.3 switch=y r1=0.001 x1=0.001 r0=0.001 x0=0.001 Length=0.001 units=km
New Line.223368577$223368586 phases=3 Bus1=223368559.1.2.3 Bus2=223368560.1.2.3 switch=y r1=0.001 x1=0.001 r0=0.001 x0=0.001 Length=0.001 units=km
New Line.32525133$32525117 phases=3 Bus1=32525121.1.2.3 Bus2=32525137.1.2.3 switch=y r1=0.001 x1=0.001 r0=0.001 x0=0.001 Length=0.001 units=km
New Line.5718233:J233A-1 phases=2 Bus1=237224086.1.3 Bus2=237224087.1.3 switch=y r1=0.001 x1=0.001 r0=0.001 x0=0.001 Length=0.001 units=km
New Line.5645878:GS6696-3 phases=3 Bus1=188203496.1.2.3 Bus2=188203464.1.2.3 switch=y r1=0.001 x1=0.001 r0=0.001 x0=0.001 Length=0.001 units=km
New Line.5650637:GS6753-1 phases=3 Bus1=220531464.1.2.3 Bus2=220531443.1.2.3 switch=y r1=0.001 x1=0.001 r0=0.001 x0=0.001 Length=0.001 units=km
New Line.5728552:GS6842-1 phases=3 Bus1=223366088.1.2.3 Bus2=223366055.1.2.3 switch=y r1=0.001 x1=0.001 r0=0.001 x0=0.001 Length=0.001 units=km enabled=false
New Line.5728557:GS6845-4 phases=3 Bus1=223366411.1.2.3 Bus2=223366364.1.2.3 switch=y r1=0.001 x1=0.001 r0=0.001 x0=0.001 Length=0.001 units=km
New Line.5463721:B5463721-2 phases=2 Bus1=32524960.1.3 Bus2=32524952.1.3 switch=y r1=0.001 x1=0.001 r0=0.001 x0=0.001 Length=0.001 units=km
New Line.5718233:J233A-2 phases=2 Bus1=237224103.1.3 Bus2=237224102.1.3 switch=y r1=0.001 x1=0.001 r0=0.001 x0=0.001 Length=0.001 units=km
New Line.1767737E:PS0373 phases=3 Bus1=32525861.1.2.3 Bus2=32525860.1.2.3 switch=y r1=0.001 x1=0.001 r0=0.001 x0=0.001 Length=0.001 units=km
New Line.4854029E:RCS0337 phases=3 Bus1=32525832.1.2.3 Bus2=32525833.1.2.3 switch=y r1=0.001 x1=0.001 r0=0.001 x0=0.001 Length=0.001 units=km
New Line.5645878:GS6696-2 phases=3 Bus1=188203458.1.2.3 Bus2=188203487.1.2.3 switch=y r1=0.001 x1=0.001 r0=0.001 x0=0.001 Length=0.001 units=km
New Line.5645878:GS6696-4 phases=3 Bus1=188203470.1.2.3 Bus2=188203505.1.2.3 switch=y r1=0.001 x1=0.001 r0=0.001 x0=0.001 Length=0.001 units=km
New Line.5650637:GS6753-2 phases=3 Bus1=220531444.1.2.3 Bus2=220531473.1.2.3 switch=y r1=0.001 x1=0.001 r0=0.001 x0=0.001 Length=0.001 units=km
New Line.5718233:J233A-3 phases=2 Bus1=237224095.1.3 Bus2=237224094.1.3 switch=y r1=0.001 x1=0.001 r0=0.001 x0=0.001 Length=0.001 units=km
New Line.5047641:P5047641-1 phases=3 Bus1=244024098.1.2.3 Bus2=244024099.1.2.3 switch=y r1=0.001 x1=0.001 r0=0.001 x0=0.001 Length=0.001 units=km
New Line.1239097E:PS0395 phases=3 Bus1=32526288.1.2.3 Bus2=32526289.1.2.3 switch=y r1=0.001 x1=0.001 r0=0.001 x0=0.001 Length=0.001 units=km
New Line.5645878:GS6696-1 phases=3 Bus1=188203457.1.2.3 Bus2=188203478.1.2.3 switch=y r1=0.001 x1=0.001 r0=0.001 x0=0.001 Length=0.001 units=km
New Line.5650637:GS6753-3 phases=3 Bus1=220531450.1.2.3 Bus2=220531482.1.2.3 switch=y r1=0.001 x1=0.001 r0=0.001 x0=0.001 Length=0.001 units=km
New Line.5463721:B5463721-1 phases=2 Bus1=32524952.1.3 Bus2=-77777732524952.1.3 switch=y r1=0.001 x1=0.001 r0=0.001 x0=0.001 Length=0.001 units=km
New Line.1446628E:RCS0074 phases=3 Bus1=48695722.1.2.3 Bus2=48695721.1.2.3 switch=y r1=0.001 x1=0.001 r0=0.001 x0=0.001 Length=0.001 units=km enabled=false
New Line.5728557:GS6845-3 phases=3 Bus1=223366358.1.2.3 Bus2=223366402.1.2.3 switch=y r1=0.001 x1=0.001 r0=0.001 x0=0.001 Length=0.001 units=km enabled=false
New Line.5728557:GS6845-5 phases=3 Bus1=223366370.1.2.3 Bus2=223366420.1.2.3 switch=y r1=0.001 x1=0.001 r0=0.001 x0=0.001 Length=0.001 units=km enabled=false
New Line.5463714:J714A-1 phases=3 Bus1=32525113.1.2.3 Bus2=32525112.1.2.3 switch=y r1=0.001 x1=0.001 r0=0.001 x0=0.001 Length=0.001 units=km
New Line.5393345:GS5746-4 phases=3 Bus1=223368572.1.2.3 Bus2=223368607.1.2.3 switch=y r1=0.001 x1=0.001 r0=0.001 x0=0.001 Length=0.001 units=km
New Line.5393255:J255A-4 phases=3 Bus1=244023984.1.2.3 Bus2=244023983.1.2.3 switch=y r1=0.001 x1=0.001 r0=0.001 x0=0.001 Length=0.001 units=km
New Line.5619605:P5619605-1 phases=3 Bus1=151716236.1.2.3 Bus2=151716237.1.2.3 switch=y r1=0.001 x1=0.001 r0=0.001 x0=0.001 Length=0.001 units=km
New Line.5139479:P5139479-1 phases=3 Bus1=32523416.1.2.3 Bus2=32523417.1.2.3 switch=y r1=0.001 x1=0.001 r0=0.001 x0=0.001 Length=0.001 units=km
New Line.5650728:P5650728-1 phases=2 Bus1=220531694.2.3 Bus2=220531695.2.3 switch=y r1=0.001 x1=0.001 r0=0.001 x0=0.001 Length=0.001 units=km
New Line.5047627:GS5678-1 phases=3 Bus1=207769591.1.2.3 Bus2=207769570.1.2.3 switch=y r1=0.001 x1=0.001 r0=0.001 x0=0.001 Length=0.001 units=km
New Line.5047627:GS5678-2 phases=3 Bus1=207769571.1.2.3 Bus2=207769600.1.2.3 switch=y r1=0.001 x1=0.001 r0=0.001 x0=0.001 Length=0.001 units=km
New Line.5047627:GS5678-3 phases=3 Bus1=207769577.1.2.3 Bus2=207769609.1.2.3 switch=y r1=0.001 x1=0.001 r0=0.001 x0=0.001 Length=0.001 units=km
New Line.5047627:J627A-4 phases=3 Bus1=173770871.1.2.3 Bus2=173770872.1.2.3 switch=y r1=0.001 x1=0.001 r0=0.001 x0=0.001 Length=0.001 units=km
New Line.5047627:J627A-3 phases=3 Bus1=173770864.1.2.3 Bus2=173770863.1.2.3 switch=y r1=0.001 x1=0.001 r0=0.001 x0=0.001 Length=0.001 units=km
New Line.5047627:J627A-2 phases=3 Bus1=173770880.1.2.3 Bus2=173770879.1.2.3 switch=y r1=0.001 x1=0.001 r0=0.001 x0=0.001 Length=0.001 units=km
New Line.5047627:J627A-1 phases=3 Bus1=173770856.1.2.3 Bus2=173770855.1.2.3 switch=y r1=0.001 x1=0.001 r0=0.001 x0=0.001 Length=0.001 units=km
New Line.5761893:P5761893-1 phases=3 Bus1=235952296.1.2.3 Bus2=235952297.1.2.3 switch=y r1=0.001 x1=0.001 r0=0.001 x0=0.001 Length=0.001 units=km
New Line.5047632:P5047632-1 phases=3 Bus1=32524243.1.2.3 Bus2=32524244.1.2.3 switch=y r1=0.001 x1=0.001 r0=0.001 x0=0.001 Length=0.001 units=km
New Line.5139307:P5139307-1 phases=3 Bus1=32524182.1.2.3 Bus2=32524183.1.2.3 switch=y r1=0.001 x1=0.001 r0=0.001 x0=0.001 Length=0.001 units=km
New Line.5139855:P5139855-1 phases=3 Bus1=32523368.1.2.3 Bus2=32523369.1.2.3 switch=y r1=0.001 x1=0.001 r0=0.001 x0=0.001 Length=0.001 units=km
New Line.5393345:J345A-3 phases=3 Bus1=168845065.1.2.3 Bus2=168845066.1.2.3 switch=y r1=0.001 x1=0.001 r0=0.001 x0=0.001 Length=0.001 units=km
New Line.5393342:GS5743-1 phases=3 Bus1=20042530.1.2.3 Bus2=-77777720042530.1.2.3 switch=y r1=0.001 x1=0.001 r0=0.001 x0=0.001 Length=0.001 units=km enabled=false
New Line.5728557:GS6845-6 phases=3 Bus1=223366376.1.2.3 Bus2=223366429.1.2.3 switch=y r1=0.001 x1=0.001 r0=0.001 x0=0.001 Length=0.001 units=km
New Line.5645878:J878B-1 phases=3 Bus1=185141414.1.2.3 Bus2=185141415.1.2.3 switch=y r1=0.001 x1=0.001 r0=0.001 x0=0.001 Length=0.001 units=km
New Line.5650637:GS6753-4 phases=3 Bus1=220531456.1.2.3 Bus2=220531491.1.2.3 switch=y r1=0.001 x1=0.001 r0=0.001 x0=0.001 Length=0.001 units=km
New Line.5728557:GS6845-1 phases=3 Bus1=223366351.1.2.3 Bus2=223366384.1.2.3 switch=y r1=0.001 x1=0.001 r0=0.001 x0=0.001 Length=0.001 units=km
New Line.5718232:P5718232-1 phases=2 Bus1=237224183.1.3 Bus2=237224184.1.3 switch=y r1=0.001 x1=0.001 r0=0.001 x0=0.001 Length=0.001 units=km
New Line.5140195:BS0858-T phases=3 Bus1=32495673.1.2.3 Bus2=32495666.1.2.3 switch=y r1=0.001 x1=0.001 r0=0.001 x0=0.001 Length=0.001 units=km
New Line.679977H:PS1295 phases=3 Bus1=32525894.1.2.3 Bus2=32525895.1.2.3 switch=y r1=0.001 x1=0.001 r0=0.001 x0=0.001 Length=0.001 units=km
New Line.5463717:GS5979-4 phases=3 Bus1=38386267.1.2.3 Bus2=38386236.1.2.3 switch=y r1=0.001 x1=0.001 r0=0.001 x0=0.001 Length=0.001 units=km
New Line.5140195:BS0858-R phases=3 Bus1=32495666.1.2.3 Bus2=32495665.1.2.3 switch=y r1=0.001 x1=0.001 r0=0.001 x0=0.001 Length=0.001 units=km
New Line.5140195:BS0858-L phases=3 Bus1=32495666.1.2.3 Bus2=32495682.1.2.3 switch=y r1=0.001 x1=0.001 r0=0.001 x0=0.001 Length=0.001 units=km
New Line.5645878:J878B-2 phases=3 Bus1=185141439.1.2.3 Bus2=185141438.1.2.3 switch=y r1=0.001 x1=0.001 r0=0.001 x0=0.001 Length=0.001 units=km
New Line.5664155:PE6699-1 phases=3 Bus1=211495079.1.2.3 Bus2=211495069.1.2.3 switch=y r1=0.001 x1=0.001 r0=0.001 x0=0.001 Length=0.001 units=km
New Line.5785957:GS7181-4 phases=3 Bus1=263637395.1.2.3 Bus2=263637354.1.2.3 switch=y r1=0.001 x1=0.001 r0=0.001 x0=0.001 Length=0.001 units=km
New Line.5567412:GS5580-2 phases=3 Bus1=94859127.1.2.3 Bus2=94859108.1.2.3 switch=y r1=0.001 x1=0.001 r0=0.001 x0=0.001 Length=0.001 units=km
New Line.5645878:J878B-3 phases=3 Bus1=185141423.1.2.3 Bus2=185141422.1.2.3 switch=y r1=0.001 x1=0.001 r0=0.001 x0=0.001 Length=0.001 units=km
New Line.5650729:P5650729-1 phases=2 Bus1=220531599.1.2 Bus2=220531600.1.2 switch=y r1=0.001 x1=0.001 r0=0.001 x0=0.001 Length=0.001 units=km
New Line.5463717:GS5979-3 phases=3 Bus1=38386230.1.2.3 Bus2=38386259.1.2.3 switch=y r1=0.001 x1=0.001 r0=0.001 x0=0.001 Length=0.001 units=km
New Line.5463717:GS5979-2 phases=3 Bus1=38386224.1.2.3 Bus2=38386243.1.2.3 switch=y r1=0.001 x1=0.001 r0=0.001 x0=0.001 Length=0.001 units=km
New Line.5645878:J878B-4 phases=3 Bus1=185141431.1.2.3 Bus2=185141430.1.2.3 switch=y r1=0.001 x1=0.001 r0=0.001 x0=0.001 Length=0.001 units=km
New Line.5664155:PE6699-4 phases=3 Bus1=211495051.1.2.3 Bus2=211495061.1.2.3 switch=y r1=0.001 x1=0.001 r0=0.001 x0=0.001 Length=0.001 units=km enabled=false
New Line.5567412:GS5580-1 phases=3 Bus1=94859107.1.2.3 Bus2=94859135.1.2.3 switch=y r1=0.001 x1=0.001 r0=0.001 x0=0.001 Length=0.001 units=km
New Line.5567412:GS5580-3 phases=3 Bus1=94859114.1.2.3 Bus2=94859143.1.2.3 switch=y r1=0.001 x1=0.001 r0=0.001 x0=0.001 Length=0.001 units=km
New Line.5463717:GS5979-1 phases=3 Bus1=38386223.1.2.3 Bus2=38386251.1.2.3 switch=y r1=0.001 x1=0.001 r0=0.001 x0=0.001 Length=0.001 units=km
New Line.5140200:PME0907-1 phases=2 Bus1=32524389.1.2 Bus2=32524372.1.2 switch=y r1=0.001 x1=0.001 r0=0.001 x0=0.001 Length=0.001 units=km
New Line.1560721E:RCS1057 phases=3 Bus1=32526001.1.2.3 Bus2=32526000.1.2.3 switch=y r1=0.001 x1=0.001 r0=0.001 x0=0.001 Length=0.001 units=km
New Line.5785957:GS7181-1 phases=3 Bus1=263637341.1.2.3 Bus2=263637368.1.2.3 switch=y r1=0.001 x1=0.001 r0=0.001 x0=0.001 Length=0.001 units=km
New Line.5741375:RCS7017-2 phases=3 Bus1=224183898.1.2.3 Bus2=-777777224183898.1.2.3 switch=y r1=0.001 x1=0.001 r0=0.001 x0=0.001 Length=0.001 units=km enabled=false
New Line.5044473:GS5686-1 phases=3 Bus1=214708041.1.2.3 Bus2=-777777214708041.1.2.3 switch=y r1=0.001 x1=0.001 r0=0.001 x0=0.001 Length=0.001 units=km enabled=false
New Line.5664155:PE6699-2 phases=3 Bus1=211495069.1.2.3 Bus2=-777777211495069.1.2.3 switch=y r1=0.001 x1=0.001 r0=0.001 x0=0.001 Length=0.001 units=km enabled=false
New Line.5631256:GS0723-1 phases=3 Bus1=201248809.1.2.3 Bus2=-777777201248809.1.2.3 switch=y r1=0.001 x1=0.001 r0=0.001 x0=0.001 Length=0.001 units=km enabled=false
New Line.5785959:PME7182-2 phases=3 Bus1=263637548.1.2.3 Bus2=263637530.1.2.3 switch=y r1=0.001 x1=0.001 r0=0.001 x0=0.001 Length=0.001 units=km
New Line.5567413:PME5581-1 phases=3 Bus1=94859327.1.2.3 Bus2=94859310.1.2.3 switch=y r1=0.001 x1=0.001 r0=0.001 x0=0.001 Length=0.001 units=km
New Line.5567414:PMS5582-1 phases=3 Bus1=94859406.1.2.3 Bus2=94859389.1.2.3 switch=y r1=0.001 x1=0.001 r0=0.001 x0=0.001 Length=0.001 units=km
New Line.5555977:PME5584-1 phases=3 Bus1=94859485.1.2.3 Bus2=94859468.1.2.3 switch=y r1=0.001 x1=0.001 r0=0.001 x0=0.001 Length=0.001 units=km
New Line.5567415:PMS5583-1 phases=2 Bus1=94861652.1.3 Bus2=94861635.1.3 switch=y r1=0.001 x1=0.001 r0=0.001 x0=0.001 Length=0.001 units=km
New Line.211118518$211118534 phases=3 Bus1=211118538.1.2.3 Bus2=211118522.1.2.3 switch=y r1=0.001 x1=0.001 r0=0.001 x0=0.001 Length=0.001 units=km
New Line.220531301$GS6752-2 phases=3 Bus1=220531284.1.2.3 Bus2=220531283.1.2.3 switch=y r1=0.001 x1=0.001 r0=0.001 x0=0.001 Length=0.001 units=km
New Line.223368586$223368595 phases=3 Bus1=223368560.1.2.3 Bus2=223368566.1.2.3 switch=y r1=0.001 x1=0.001 r0=0.001 x0=0.001 Length=0.001 units=km
New Line.244023964$244023988 phases=3 Bus1=244023992.1.2.3 Bus2=244023968.1.2.3 switch=y r1=0.001 x1=0.001 r0=0.001 x0=0.001 Length=0.001 units=km
New Line.244023988$244023972 phases=3 Bus1=244023992.1.2.3 Bus2=244023976.1.2.3 switch=y r1=0.001 x1=0.001 r0=0.001 x0=0.001 Length=0.001 units=km
New Line.32525109$32525133 phases=3 Bus1=32525137.1.2.3 Bus2=32525113.1.2.3 switch=y r1=0.001 x1=0.001 r0=0.001 x0=0.001 Length=0.001 units=km
New Line.194443011 phases=3 Bus1=194443013.1.2.3 Bus2=194443014.1.2.3 switch=y r1=0.001 x1=0.001 r0=0.001 x0=0.001 Length=0.001 units=km
New Line.194453790 phases=3 Bus1=194453792.1.2.3 Bus2=194453793.1.2.3 switch=y r1=0.001 x1=0.001 r0=0.001 x0=0.001 Length=0.001 units=km
New Line.1446641E:PS7000 phases=3 Bus1=237895477.1.2.3 Bus2=237895478.1.2.3 switch=y r1=0.001 x1=0.001 r0=0.001 x0=0.001 Length=0.001 units=km
New Line.1378346E:RCS0085 phases=3 Bus1=32526034.1.2.3 Bus2=32526035.1.2.3 switch=y r1=0.001 x1=0.001 r0=0.001 x0=0.001 Length=0.001 units=km enabled=false
New Line.5393345:J345A-2 phases=3 Bus1=168845074.1.2.3 Bus2=168845073.1.2.3 switch=y r1=0.001 x1=0.001 r0=0.001 x0=0.001 Length=0.001 units=km
New Line.5393345:J345A-1 phases=3 Bus1=168845058.1.2.3 Bus2=168845057.1.2.3 switch=y r1=0.001 x1=0.001 r0=0.001 x0=0.001 Length=0.001 units=km
New Line.5463724:B5463724-2 phases=3 Bus1=38386150.1.2.3 Bus2=38386142.1.2.3 switch=y r1=0.001 x1=0.001 r0=0.001 x0=0.001 Length=0.001 units=km
New Line.5654487:P5654487-1 phases=3 Bus1=223473345.1.2.3 Bus2=223473346.1.2.3 switch=y r1=0.001 x1=0.001 r0=0.001 x0=0.001 Length=0.001 units=km
New Line.5728558:P5728558-1 phases=3 Bus1=223366607.1.2.3 Bus2=223366608.1.2.3 switch=y r1=0.001 x1=0.001 r0=0.001 x0=0.001 Length=0.001 units=km
New Line.5463713:GS5978-3 phases=3 Bus1=32525378.1.2.3 Bus2=32525349.1.2.3 switch=y r1=0.001 x1=0.001 r0=0.001 x0=0.001 Length=0.001 units=km enabled=false
New Line.5393261:GS5748-4 phases=3 Bus1=38293756.1.2.3 Bus2=38293725.1.2.3 switch=y r1=0.001 x1=0.001 r0=0.001 x0=0.001 Length=0.001 units=km
New Line.5140197:P5140197-1 phases=2 Bus1=32523197.1.3 Bus2=32523198.1.3 switch=y r1=0.001 x1=0.001 r0=0.001 x0=0.001 Length=0.001 units=km
New Line.5463713:GS5978-2 phases=3 Bus1=32525343.1.2.3 Bus2=32525362.1.2.3 switch=y r1=0.001 x1=0.001 r0=0.001 x0=0.001 Length=0.001 units=km
New Line.5463713:GS5978-4 phases=3 Bus1=32525355.1.2.3 Bus2=32525386.1.2.3 switch=y r1=0.001 x1=0.001 r0=0.001 x0=0.001 Length=0.001 units=km
New Line.5393261:GS5748-3 phases=3 Bus1=38293719.1.2.3 Bus2=38293748.1.2.3 switch=y r1=0.001 x1=0.001 r0=0.001 x0=0.001 Length=0.001 units=km
New Line.5140196:P5140196-1 phases=2 Bus1=243213860.2.3 Bus2=243213861.2.3 switch=y r1=0.001 x1=0.001 r0=0.001 x0=0.001 Length=0.001 units=km
New Line.5140198:P5140198-1 phases=2 Bus1=32523149.2.3 Bus2=32523150.2.3 switch=y r1=0.001 x1=0.001 r0=0.001 x0=0.001 Length=0.001 units=km
New Line.5434614:P5434614-1 phases=3 Bus1=69866752.1.2.3 Bus2=69866753.1.2.3 switch=y r1=0.001 x1=0.001 r0=0.001 x0=0.001 Length=0.001 units=km
New Line.5664158:P5664158-1 phases=3 Bus1=188523791.1.2.3 Bus2=188523792.1.2.3 switch=y r1=0.001 x1=0.001 r0=0.001 x0=0.001 Length=0.001 units=km
New Line.5047687:GS6514-3 phases=3 Bus1=186076843.1.2.3 Bus2=-777777186076843.1.2.3 switch=y r1=0.001 x1=0.001 r0=0.001 x0=0.001 Length=0.001 units=km enabled=false
New Line.5463724:B5463724-1 phases=3 Bus1=38386142.1.2.3 Bus2=-77777738386142.1.2.3 switch=y r1=0.001 x1=0.001 r0=0.001 x0=0.001 Length=0.001 units=km
New Line.5463713:GS5978-1 phases=3 Bus1=32525342.1.2.3 Bus2=32525370.1.2.3 switch=y r1=0.001 x1=0.001 r0=0.001 x0=0.001 Length=0.001 units=km
New Line.5393261:GS5748-2 phases=3 Bus1=38293713.1.2.3 Bus2=38293732.1.2.3 switch=y r1=0.001 x1=0.001 r0=0.001 x0=0.001 Length=0.001 units=km
New Line.5463713:J713A-1 phases=3 Bus1=169309418.1.2.3 Bus2=169309419.1.2.3 switch=y r1=0.001 x1=0.001 r0=0.001 x0=0.001 Length=0.001 units=km
New Line.5653097:P5653097-2 phases=3 Bus1=185442891.1.2.3 Bus2=185442883.1.2.3 switch=y r1=0.001 x1=0.001 r0=0.001 x0=0.001 Length=0.001 units=km
New Line.5463711:RCS5977-6 phases=3 Bus1=211118141.1.2.3 Bus2=211118094.1.2.3 switch=y r1=0.001 x1=0.001 r0=0.001 x0=0.001 Length=0.001 units=km
New Line.5393259:GS6914-5 phases=3 Bus1=219377639.1.2.3 Bus2=219377589.1.2.3 switch=y r1=0.001 x1=0.001 r0=0.001 x0=0.001 Length=0.001 units=km
New Line.5463713:J713A-2 phases=3 Bus1=169309443.1.2.3 Bus2=169309442.1.2.3 switch=y r1=0.001 x1=0.001 r0=0.001 x0=0.001 Length=0.001 units=km
New Line.5463711:RCS5977-5 phases=3 Bus1=211118088.1.2.3 Bus2=211118133.1.2.3 switch=y r1=0.001 x1=0.001 r0=0.001 x0=0.001 Length=0.001 units=km
New Line.5140202:P5140202-2 phases=2 Bus1=90568614.1.2 Bus2=90568606.1.2 switch=y r1=0.001 x1=0.001 r0=0.001 x0=0.001 Length=0.001 units=km
New Line.5463713:J713A-3 phases=3 Bus1=169309427.1.2.3 Bus2=169309426.1.2.3 switch=y r1=0.001 x1=0.001 r0=0.001 x0=0.001 Length=0.001 units=km
New Line.5463711:RCS5977-4 phases=3 Bus1=211118082.1.2.3 Bus2=211118125.1.2.3 switch=y r1=0.001 x1=0.001 r0=0.001 x0=0.001 Length=0.001 units=km
New Line.5393259:GS6914-6 phases=3 Bus1=219377595.1.2.3 Bus2=219377648.1.2.3 switch=y r1=0.001 x1=0.001 r0=0.001 x0=0.001 Length=0.001 units=km
New Line.5140202:P5140202-1 phases=2 Bus1=90568606.1.2 Bus2=90568605.1.2 switch=y r1=0.001 x1=0.001 r0=0.001 x0=0.001 Length=0.001 units=km
New Line.5488366:P5488366-1 phases=3 Bus1=32525758.1.2.3 Bus2=32525759.1.2.3 switch=y r1=0.001 x1=0.001 r0=0.001 x0=0.001 Length=0.001 units=km
New Line.5140201:P5140201-1 phases=2 Bus1=90568683.1.2 Bus2=90568684.1.2 switch=y r1=0.001 x1=0.001 r0=0.001 x0=0.001 Length=0.001 units=km
New Line.5563764:B5563764-2 phases=2 Bus1=94860122.1.2 Bus2=94860114.1.2 switch=y r1=0.001 x1=0.001 r0=0.001 x0=0.001 Length=0.001 units=km
New Line.5567422:B5567422-1 phases=2 Bus1=94860181.1.2 Bus2=94860182.1.2 switch=y r1=0.001 x1=0.001 r0=0.001 x0=0.001 Length=0.001 units=km
New Line.5567426:B5567426-2 phases=2 Bus1=94860258.1.2 Bus2=94860250.1.2 switch=y r1=0.001 x1=0.001 r0=0.001 x0=0.001 Length=0.001 units=km
New Line.5463713:J713A-4 phases=3 Bus1=169309435.1.2.3 Bus2=169309434.1.2.3 switch=y r1=0.001 x1=0.001 r0=0.001 x0=0.001 Length=0.001 units=km
New Line.5463711:RCS5977-3 phases=3 Bus1=211118076.1.2.3 Bus2=211118109.1.2.3 switch=y r1=0.001 x1=0.001 r0=0.001 x0=0.001 Length=0.001 units=km
New Line.5463711:RCS5977-2 phases=3 Bus1=211118070.1.2.3 Bus2=211118101.1.2.3 switch=y r1=0.001 x1=0.001 r0=0.001 x0=0.001 Length=0.001 units=km
New Line.5393259:GS6914-2 phases=3 Bus1=219377571.1.2.3 Bus2=219377612.1.2.3 switch=y r1=0.001 x1=0.001 r0=0.001 x0=0.001 Length=0.001 units=km
New Line.5436604:P5436604-1 phases=3 Bus1=38384562.1.2.3 Bus2=38384563.1.2.3 switch=y r1=0.001 x1=0.001 r0=0.001 x0=0.001 Length=0.001 units=km
New Line.5441068:P5441068-1 phases=3 Bus1=38385975.1.2.3 Bus2=38385976.1.2.3 switch=y r1=0.001 x1=0.001 r0=0.001 x0=0.001 Length=0.001 units=km
New Line.5563763:B5563763-1 phases=2 Bus1=94860045.1.2 Bus2=94860046.1.2 switch=y r1=0.001 x1=0.001 r0=0.001 x0=0.001 Length=0.001 units=km
New Line.5567424:B5567424-1 phases=2 Bus1=94860725.1.2 Bus2=94860726.1.2 switch=y r1=0.001 x1=0.001 r0=0.001 x0=0.001 Length=0.001 units=km
New Line.5563754:B5563754-2 phases=2 Bus1=94861210.1.3 Bus2=94861202.1.3 switch=y r1=0.001 x1=0.001 r0=0.001 x0=0.001 Length=0.001 units=km
New Line.5139597:P5139597-1 phases=3 Bus1=32524063.1.2.3 Bus2=32524064.1.2.3 switch=y r1=0.001 x1=0.001 r0=0.001 x0=0.001 Length=0.001 units=km
New Line.5563747:B5563747-2 phases=2 Bus1=94859780.2.3 Bus2=94859772.2.3 switch=y r1=0.001 x1=0.001 r0=0.001 x0=0.001 Length=0.001 units=km
New Line.5563750:B5563750-1 phases=2 Bus1=94860997.1.3 Bus2=94860998.1.3 switch=y r1=0.001 x1=0.001 r0=0.001 x0=0.001 Length=0.001 units=km
New Line.5563754:B5563754-1 phases=2 Bus1=94861202.1.3 Bus2=94861201.1.3 switch=y r1=0.001 x1=0.001 r0=0.001 x0=0.001 Length=0.001 units=km
New Line.5563748:B5563748-1 phases=2 Bus1=94859567.1.3 Bus2=94859568.1.3 switch=y r1=0.001 x1=0.001 r0=0.001 x0=0.001 Length=0.001 units=km
New Line.5567420:B5567420-2 phases=2 Bus1=94859644.1.3 Bus2=94859636.1.3 switch=y r1=0.001 x1=0.001 r0=0.001 x0=0.001 Length=0.001 units=km
New Line.5563749:B5563749-1 phases=2 Bus1=94859703.1.3 Bus2=94859704.1.3 switch=y r1=0.001 x1=0.001 r0=0.001 x0=0.001 Length=0.001 units=km
New Line.5563757:B5563757-1 phases=2 Bus1=94860657.2.3 Bus2=94860658.2.3 switch=y r1=0.001 x1=0.001 r0=0.001 x0=0.001 Length=0.001 units=km
New Line.5563750:B5563750-2 phases=2 Bus1=94860998.1.3 Bus2=94861006.1.3 switch=y r1=0.001 x1=0.001 r0=0.001 x0=0.001 Length=0.001 units=km
New Line.5650726:GS6752-4 phases=3 Bus1=220531331.1.2.3 Bus2=220531296.1.2.3 switch=y r1=0.001 x1=0.001 r0=0.001 x0=0.001 Length=0.001 units=km
New Line.4336666E:PS1601 phases=3 Bus1=237296378.1.2.3 Bus2=237296379.1.2.3 switch=y r1=0.001 x1=0.001 r0=0.001 x0=0.001 Length=0.001 units=km
New Line.5654520:P5654520-1 phases=3 Bus1=223659508.1.2.3 Bus2=223659509.1.2.3 switch=y r1=0.001 x1=0.001 r0=0.001 x0=0.001 Length=0.001 units=km
New Line.4336671E:4336671E phases=3 Bus1=32525080.1.2.3 Bus2=32525079.1.2.3 switch=y r1=0.001 x1=0.001 r0=0.001 x0=0.001 Length=0.001 units=km
New Line.2380444E:2380444E phases=3 Bus1=38347816.1.2.3 Bus2=38347817.1.2.3 switch=y r1=0.001 x1=0.001 r0=0.001 x0=0.001 Length=0.001 units=km
New Line.1836611E:1836611E phases=3 Bus1=32496528.1.2.3 Bus2=32496527.1.2.3 switch=y r1=0.001 x1=0.001 r0=0.001 x0=0.001 Length=0.001 units=km
New Line.1239092E:1239092E phases=3 Bus1=32434844.1.2.3 Bus2=32434845.1.2.3 switch=y r1=0.001 x1=0.001 r0=0.001 x0=0.001 Length=0.001 units=km
New Line.2380815E:2380815E phases=3 Bus1=32496557.1.2.3 Bus2=32496558.1.2.3 switch=y r1=0.001 x1=0.001 r0=0.001 x0=0.001 Length=0.001 units=km
New Line.1378366E:1378366E phases=3 Bus1=32496628.1.2.3 Bus2=32496629.1.2.3 switch=y r1=0.001 x1=0.001 r0=0.001 x0=0.001 Length=0.001 units=km
New Line.4951602E:FD00252 phases=3 Bus1=223473305.1.2.3 Bus2=223473306.1.2.3 switch=y r1=0.001 x1=0.001 r0=0.001 x0=0.001 Length=0.001 units=km
New Line.4352137E:4352137E phases=3 Bus1=32524725.1.2.3 Bus2=32524726.1.2.3 switch=y r1=0.001 x1=0.001 r0=0.001 x0=0.001 Length=0.001 units=km
New Line.4336674E:4336674E phases=3 Bus1=38386107.1.2.3 Bus2=38386108.1.2.3 switch=y r1=0.001 x1=0.001 r0=0.001 x0=0.001 Length=0.001 units=km
New Line.1713899E:1713899E phases=3 Bus1=32523460.1.2.3 Bus2=32523461.1.2.3 switch=y r1=0.001 x1=0.001 r0=0.001 x0=0.001 Length=0.001 units=km
New Line.4336672E:BF45538 phases=3 Bus1=38386210.1.2.3 Bus2=38386209.1.2.3 switch=y r1=0.001 x1=0.001 r0=0.001 x0=0.001 Length=0.001 units=km
New Line.4116232E:4116232E phases=2 Bus1=32522838.1.2 Bus2=32522839.1.2 switch=y r1=0.001 x1=0.001 r0=0.001 x0=0.001 Length=0.001 units=km
New Line.1673956E:1673956EPH phases=3 Bus1=69866733.1.2.3 Bus2=69866734.1.2.3 switch=y r1=0.001 x1=0.001 r0=0.001 x0=0.001 Length=0.001 units=km
New Line.1495672PH:1495672PH phases=3 Bus1=185443077.1.2.3 Bus2=185443078.1.2.3 switch=y r1=0.001 x1=0.001 r0=0.001 x0=0.001 Length=0.001 units=km
New Line.4336676E:4336676E phases=3 Bus1=38386095.1.2.3 Bus2=38386094.1.2.3 switch=y r1=0.001 x1=0.001 r0=0.001 x0=0.001 Length=0.001 units=km
New Line.1612809E:1612809E phases=3 Bus1=32525741.1.2.3 Bus2=32525742.1.2.3 switch=y r1=0.001 x1=0.001 r0=0.001 x0=0.001 Length=0.001 units=km
New Line.1378344E:1378344E phases=3 Bus1=32525712.1.2.3 Bus2=32525711.1.2.3 switch=y r1=0.001 x1=0.001 r0=0.001 x0=0.001 Length=0.001 units=km
New Line.1673986E:1673986E phases=3 Bus1=38385958.1.2.3 Bus2=38385959.1.2.3 switch=y r1=0.001 x1=0.001 r0=0.001 x0=0.001 Length=0.001 units=km
New Line.4835942E:4835942EPH phases=3 Bus1=223659464.1.2.3 Bus2=223659465.1.2.3 switch=y r1=0.001 x1=0.001 r0=0.001 x0=0.001 Length=0.001 units=km
New Line.4336666E:4336666E phases=3 Bus1=32525020.1.2.3 Bus2=32525019.1.2.3 switch=y r1=0.001 x1=0.001 r0=0.001 x0=0.001 Length=0.001 units=km
New Line.1446641E:1446641E phases=3 Bus1=32524107.1.2.3 Bus2=32524108.1.2.3 switch=y r1=0.001 x1=0.001 r0=0.001 x0=0.001 Length=0.001 units=km
New Line.1701012E:1701012EPH phases=3 Bus1=151716217.1.2.3 Bus2=151716218.1.2.3 switch=y r1=0.001 x1=0.001 r0=0.001 x0=0.001 Length=0.001 units=km
New Line.2244463E:2244463E phases=3 Bus1=38347871.1.2.3 Bus2=38347872.1.2.3 switch=y r1=0.001 x1=0.001 r0=0.001 x0=0.001 Length=0.001 units=km
New Line.223368595$223368604 phases=3 Bus1=223368566.1.2.3 Bus2=223368572.1.2.3 switch=y r1=0.001 x1=0.001 r0=0.001 x0=0.001 Length=0.001 units=km
New Line.244023972$244023980 phases=3 Bus1=244023976.1.2.3 Bus2=244023984.1.2.3 switch=y r1=0.001 x1=0.001 r0=0.001 x0=0.001 Length=0.001 units=km
New Line.5463711:RCS5977-1 phases=3 Bus1=211118069.1.2.3 Bus2=211118117.1.2.3 switch=y r1=0.001 x1=0.001 r0=0.001 x0=0.001 Length=0.001 units=km
New Line.5393259:GS6914-1 phases=3 Bus1=219377570.1.2.3 Bus2=219377603.1.2.3 switch=y r1=0.001 x1=0.001 r0=0.001 x0=0.001 Length=0.001 units=km
New Line.5463714:J714A-4 phases=3 Bus1=32525128.1.2.3 Bus2=32525129.1.2.3 switch=y r1=0.001 x1=0.001 r0=0.001 x0=0.001 Length=0.001 units=km
New Line.5463722:B5463722-2 phases=2 Bus1=32525282.1.2 Bus2=32525274.1.2 switch=y r1=0.001 x1=0.001 r0=0.001 x0=0.001 Length=0.001 units=km
New Line.5463711:J711A-3 phases=3 Bus1=211118529.1.2.3 Bus2=211118530.1.2.3 switch=y r1=0.001 x1=0.001 r0=0.001 x0=0.001 Length=0.001 units=km
...